* Subcircuit and models file

*Diodes
.model Def D()


