*Library of components 
*$

*****************************************************************************
* Diodes
*****************************************************************************
.model Def  D()
*--------------------------

